/*--------------------------------*- C++ -*----------------------------------*\
| =========                 |                                                 |
| \\      /  F ield         | OpenFOAM: The Open Source CFD Toolbox           |
|  \\    /   O peration     | Version:  3.0.1                                 |
|   \\  /    A nd           | Web:      www.OpenFOAM.org                      |
|    \\/     M anipulation  |                                                 |
\*---------------------------------------------------------------------------*/
FoamFile
{
    version     2.0;
    format      ascii;
    class       featureEdgeMesh;
    location    "constant/triSurface";
    object      hor_cy_scl.eMesh;
}
// * * * * * * * * * * * * * * * * * * * * * * * * * * * * * * * * * * * * * //


// points:

320
(
(0.00015 1.96299e-07 -4.99615e-06)
(0.00015 0 -5e-06)
(-0.00015 0 -5e-06)
(-0.00015 1.96299e-07 -4.99615e-06)
(0.00015 3.92295e-07 -4.98459e-06)
(-0.00015 3.92295e-07 -4.98459e-06)
(0.00015 5.87687e-07 -4.96534e-06)
(-0.00015 5.87687e-07 -4.96534e-06)
(0.00015 7.82172e-07 -4.93844e-06)
(-0.00015 7.82172e-07 -4.93844e-06)
(0.00015 9.75452e-07 -4.90393e-06)
(-0.00015 9.75452e-07 -4.90393e-06)
(0.00015 1.16723e-06 -4.86185e-06)
(-0.00015 1.16723e-06 -4.86185e-06)
(0.00015 1.3572e-06 -4.81228e-06)
(-0.00015 1.3572e-06 -4.81228e-06)
(0.00015 1.54508e-06 -4.75528e-06)
(-0.00015 1.54508e-06 -4.75528e-06)
(0.00015 1.73059e-06 -4.69096e-06)
(-0.00015 1.73059e-06 -4.69096e-06)
(0.00015 1.91342e-06 -4.6194e-06)
(-0.00015 1.91342e-06 -4.6194e-06)
(0.00015 2.0933e-06 -4.54072e-06)
(-0.00015 2.0933e-06 -4.54072e-06)
(0.00015 2.26995e-06 -4.45503e-06)
(-0.00015 2.26995e-06 -4.45503e-06)
(0.00015 2.44311e-06 -4.36248e-06)
(-0.00015 2.44311e-06 -4.36248e-06)
(0.00015 2.61249e-06 -4.2632e-06)
(-0.00015 2.61249e-06 -4.2632e-06)
(0.00015 2.77785e-06 -4.15735e-06)
(-0.00015 2.77785e-06 -4.15735e-06)
(0.00015 2.93893e-06 -4.04509e-06)
(-0.00015 2.93893e-06 -4.04509e-06)
(0.00015 3.09547e-06 -3.92658e-06)
(-0.00015 3.09547e-06 -3.92658e-06)
(0.00015 3.24724e-06 -3.80203e-06)
(-0.00015 3.24724e-06 -3.80203e-06)
(0.00015 3.394e-06 -3.67161e-06)
(-0.00015 3.394e-06 -3.67161e-06)
(0.00015 3.53553e-06 -3.53553e-06)
(-0.00015 3.53553e-06 -3.53553e-06)
(0.00015 3.67161e-06 -3.394e-06)
(-0.00015 3.67161e-06 -3.394e-06)
(0.00015 3.80203e-06 -3.24724e-06)
(-0.00015 3.80203e-06 -3.24724e-06)
(0.00015 3.92658e-06 -3.09547e-06)
(-0.00015 3.92658e-06 -3.09547e-06)
(0.00015 4.04509e-06 -2.93893e-06)
(-0.00015 4.04509e-06 -2.93893e-06)
(0.00015 4.15735e-06 -2.77785e-06)
(-0.00015 4.15735e-06 -2.77785e-06)
(0.00015 4.2632e-06 -2.61249e-06)
(-0.00015 4.2632e-06 -2.61249e-06)
(0.00015 4.36248e-06 -2.44311e-06)
(-0.00015 4.36248e-06 -2.44311e-06)
(0.00015 4.45503e-06 -2.26995e-06)
(-0.00015 4.45503e-06 -2.26995e-06)
(0.00015 4.54072e-06 -2.0933e-06)
(-0.00015 4.54072e-06 -2.0933e-06)
(0.00015 4.6194e-06 -1.91342e-06)
(-0.00015 4.6194e-06 -1.91342e-06)
(0.00015 4.69096e-06 -1.73059e-06)
(-0.00015 4.69096e-06 -1.73059e-06)
(0.00015 4.75528e-06 -1.54508e-06)
(-0.00015 4.75528e-06 -1.54508e-06)
(0.00015 4.81228e-06 -1.3572e-06)
(-0.00015 4.81228e-06 -1.3572e-06)
(0.00015 4.86185e-06 -1.16723e-06)
(-0.00015 4.86185e-06 -1.16723e-06)
(0.00015 4.90393e-06 -9.75452e-07)
(-0.00015 4.90393e-06 -9.75452e-07)
(0.00015 4.93844e-06 -7.82172e-07)
(-0.00015 4.93844e-06 -7.82172e-07)
(0.00015 4.96534e-06 -5.87687e-07)
(-0.00015 4.96534e-06 -5.87687e-07)
(0.00015 4.98459e-06 -3.92295e-07)
(-0.00015 4.98459e-06 -3.92295e-07)
(0.00015 4.99615e-06 -1.96299e-07)
(-0.00015 4.99615e-06 -1.96299e-07)
(0.00015 5e-06 3.30005e-20)
(-0.00015 5e-06 -3.36129e-20)
(0.00015 4.99615e-06 1.96299e-07)
(-0.00015 4.99615e-06 1.96299e-07)
(0.00015 4.98459e-06 3.92295e-07)
(-0.00015 4.98459e-06 3.92295e-07)
(0.00015 4.96534e-06 5.87687e-07)
(-0.00015 4.96534e-06 5.87687e-07)
(0.00015 4.93844e-06 7.82172e-07)
(-0.00015 4.93844e-06 7.82172e-07)
(0.00015 4.90393e-06 9.75452e-07)
(-0.00015 4.90393e-06 9.75452e-07)
(0.00015 4.86185e-06 1.16723e-06)
(-0.00015 4.86185e-06 1.16723e-06)
(0.00015 4.81228e-06 1.3572e-06)
(-0.00015 4.81228e-06 1.3572e-06)
(0.00015 4.75528e-06 1.54508e-06)
(-0.00015 4.75528e-06 1.54508e-06)
(0.00015 4.69096e-06 1.73059e-06)
(-0.00015 4.69096e-06 1.73059e-06)
(0.00015 4.6194e-06 1.91342e-06)
(-0.00015 4.6194e-06 1.91342e-06)
(0.00015 4.54072e-06 2.0933e-06)
(-0.00015 4.54072e-06 2.0933e-06)
(0.00015 4.45503e-06 2.26995e-06)
(-0.00015 4.45503e-06 2.26995e-06)
(0.00015 4.36248e-06 2.44311e-06)
(-0.00015 4.36248e-06 2.44311e-06)
(0.00015 4.2632e-06 2.61249e-06)
(-0.00015 4.2632e-06 2.61249e-06)
(0.00015 4.15735e-06 2.77785e-06)
(-0.00015 4.15735e-06 2.77785e-06)
(0.00015 4.04509e-06 2.93893e-06)
(-0.00015 4.04509e-06 2.93893e-06)
(0.00015 3.92658e-06 3.09547e-06)
(-0.00015 3.92658e-06 3.09547e-06)
(0.00015 3.80203e-06 3.24724e-06)
(-0.00015 3.80203e-06 3.24724e-06)
(0.00015 3.67161e-06 3.394e-06)
(-0.00015 3.67161e-06 3.394e-06)
(0.00015 3.53553e-06 3.53553e-06)
(-0.00015 3.53553e-06 3.53553e-06)
(0.00015 3.394e-06 3.67161e-06)
(-0.00015 3.394e-06 3.67161e-06)
(0.00015 3.24724e-06 3.80203e-06)
(-0.00015 3.24724e-06 3.80203e-06)
(0.00015 3.09547e-06 3.92658e-06)
(-0.00015 3.09547e-06 3.92658e-06)
(0.00015 2.93893e-06 4.04509e-06)
(-0.00015 2.93893e-06 4.04509e-06)
(0.00015 2.77785e-06 4.15735e-06)
(-0.00015 2.77785e-06 4.15735e-06)
(0.00015 2.61249e-06 4.2632e-06)
(-0.00015 2.61249e-06 4.2632e-06)
(0.00015 2.44311e-06 4.36248e-06)
(-0.00015 2.44311e-06 4.36248e-06)
(0.00015 2.26995e-06 4.45503e-06)
(-0.00015 2.26995e-06 4.45503e-06)
(0.00015 2.0933e-06 4.54072e-06)
(-0.00015 2.0933e-06 4.54072e-06)
(0.00015 1.91342e-06 4.6194e-06)
(-0.00015 1.91342e-06 4.6194e-06)
(0.00015 1.73059e-06 4.69096e-06)
(-0.00015 1.73059e-06 4.69096e-06)
(0.00015 1.54508e-06 4.75528e-06)
(-0.00015 1.54508e-06 4.75528e-06)
(0.00015 1.3572e-06 4.81228e-06)
(-0.00015 1.3572e-06 4.81228e-06)
(0.00015 1.16723e-06 4.86185e-06)
(-0.00015 1.16723e-06 4.86185e-06)
(0.00015 9.75452e-07 4.90393e-06)
(-0.00015 9.75452e-07 4.90393e-06)
(0.00015 7.82172e-07 4.93844e-06)
(-0.00015 7.82172e-07 4.93844e-06)
(0.00015 5.87687e-07 4.96534e-06)
(-0.00015 5.87687e-07 4.96534e-06)
(0.00015 3.92295e-07 4.98459e-06)
(-0.00015 3.92295e-07 4.98459e-06)
(0.00015 1.96299e-07 4.99615e-06)
(-0.00015 1.96299e-07 4.99615e-06)
(0.00015 6.12323e-22 5e-06)
(-0.00015 6.12323e-22 5e-06)
(0.00015 -1.96299e-07 4.99615e-06)
(-0.00015 -1.96299e-07 4.99615e-06)
(0.00015 -3.92295e-07 4.98459e-06)
(-0.00015 -3.92295e-07 4.98459e-06)
(0.00015 -5.87687e-07 4.96534e-06)
(-0.00015 -5.87687e-07 4.96534e-06)
(0.00015 -7.82172e-07 4.93844e-06)
(-0.00015 -7.82172e-07 4.93844e-06)
(0.00015 -9.75452e-07 4.90393e-06)
(-0.00015 -9.75452e-07 4.90393e-06)
(0.00015 -1.16723e-06 4.86185e-06)
(-0.00015 -1.16723e-06 4.86185e-06)
(0.00015 -1.3572e-06 4.81228e-06)
(-0.00015 -1.3572e-06 4.81228e-06)
(0.00015 -1.54508e-06 4.75528e-06)
(-0.00015 -1.54508e-06 4.75528e-06)
(0.00015 -1.73059e-06 4.69096e-06)
(-0.00015 -1.73059e-06 4.69096e-06)
(0.00015 -1.91342e-06 4.6194e-06)
(-0.00015 -1.91342e-06 4.6194e-06)
(0.00015 -2.0933e-06 4.54072e-06)
(-0.00015 -2.0933e-06 4.54072e-06)
(0.00015 -2.26995e-06 4.45503e-06)
(-0.00015 -2.26995e-06 4.45503e-06)
(0.00015 -2.44311e-06 4.36248e-06)
(-0.00015 -2.44311e-06 4.36248e-06)
(0.00015 -2.61249e-06 4.2632e-06)
(-0.00015 -2.61249e-06 4.2632e-06)
(0.00015 -2.77785e-06 4.15735e-06)
(-0.00015 -2.77785e-06 4.15735e-06)
(0.00015 -2.93893e-06 4.04509e-06)
(-0.00015 -2.93893e-06 4.04509e-06)
(0.00015 -3.09547e-06 3.92658e-06)
(-0.00015 -3.09547e-06 3.92658e-06)
(0.00015 -3.24724e-06 3.80203e-06)
(-0.00015 -3.24724e-06 3.80203e-06)
(0.00015 -3.394e-06 3.67161e-06)
(-0.00015 -3.394e-06 3.67161e-06)
(0.00015 -3.53553e-06 3.53553e-06)
(-0.00015 -3.53553e-06 3.53553e-06)
(-0.00015 -3.67161e-06 3.394e-06)
(0.00015 -3.67161e-06 3.394e-06)
(-0.00015 -3.80203e-06 3.24724e-06)
(0.00015 -3.80203e-06 3.24724e-06)
(-0.00015 -3.92658e-06 3.09547e-06)
(0.00015 -3.92658e-06 3.09547e-06)
(-0.00015 -4.04509e-06 2.93893e-06)
(0.00015 -4.04509e-06 2.93893e-06)
(-0.00015 -4.15735e-06 2.77785e-06)
(0.00015 -4.15735e-06 2.77785e-06)
(-0.00015 -4.2632e-06 2.61249e-06)
(0.00015 -4.2632e-06 2.61249e-06)
(-0.00015 -4.36248e-06 2.44311e-06)
(0.00015 -4.36248e-06 2.44311e-06)
(-0.00015 -4.45503e-06 2.26995e-06)
(0.00015 -4.45503e-06 2.26995e-06)
(-0.00015 -4.54072e-06 2.0933e-06)
(0.00015 -4.54072e-06 2.0933e-06)
(-0.00015 -4.6194e-06 1.91342e-06)
(0.00015 -4.6194e-06 1.91342e-06)
(-0.00015 -4.69096e-06 1.73059e-06)
(0.00015 -4.69096e-06 1.73059e-06)
(-0.00015 -4.75528e-06 1.54508e-06)
(0.00015 -4.75528e-06 1.54508e-06)
(-0.00015 -4.81228e-06 1.3572e-06)
(0.00015 -4.81228e-06 1.3572e-06)
(-0.00015 -4.86185e-06 1.16723e-06)
(0.00015 -4.86185e-06 1.16723e-06)
(-0.00015 -4.90393e-06 9.75452e-07)
(0.00015 -4.90393e-06 9.75452e-07)
(-0.00015 -4.93844e-06 7.82172e-07)
(0.00015 -4.93844e-06 7.82172e-07)
(-0.00015 -4.96534e-06 5.87687e-07)
(0.00015 -4.96534e-06 5.87687e-07)
(-0.00015 -4.98459e-06 3.92295e-07)
(0.00015 -4.98459e-06 3.92295e-07)
(-0.00015 -4.99615e-06 1.96299e-07)
(0.00015 -4.99615e-06 1.96299e-07)
(0.00015 -5e-06 3.42252e-20)
(-0.00015 -5e-06 -3.23882e-20)
(-0.00015 -4.99615e-06 -1.96299e-07)
(0.00015 -4.99615e-06 -1.96299e-07)
(-0.00015 -4.98459e-06 -3.92295e-07)
(0.00015 -4.98459e-06 -3.92295e-07)
(-0.00015 -4.96534e-06 -5.87687e-07)
(0.00015 -4.96534e-06 -5.87687e-07)
(-0.00015 -4.93844e-06 -7.82172e-07)
(0.00015 -4.93844e-06 -7.82172e-07)
(-0.00015 -4.90393e-06 -9.75452e-07)
(0.00015 -4.90393e-06 -9.75452e-07)
(-0.00015 -4.86185e-06 -1.16723e-06)
(0.00015 -4.86185e-06 -1.16723e-06)
(-0.00015 -4.81228e-06 -1.3572e-06)
(0.00015 -4.81228e-06 -1.3572e-06)
(-0.00015 -4.75528e-06 -1.54508e-06)
(0.00015 -4.75528e-06 -1.54508e-06)
(-0.00015 -4.69096e-06 -1.73059e-06)
(0.00015 -4.69096e-06 -1.73059e-06)
(-0.00015 -4.6194e-06 -1.91342e-06)
(0.00015 -4.6194e-06 -1.91342e-06)
(-0.00015 -4.54072e-06 -2.0933e-06)
(0.00015 -4.54072e-06 -2.0933e-06)
(-0.00015 -4.45503e-06 -2.26995e-06)
(0.00015 -4.45503e-06 -2.26995e-06)
(-0.00015 -4.36248e-06 -2.44311e-06)
(0.00015 -4.36248e-06 -2.44311e-06)
(-0.00015 -4.2632e-06 -2.61249e-06)
(0.00015 -4.2632e-06 -2.61249e-06)
(-0.00015 -4.15735e-06 -2.77785e-06)
(0.00015 -4.15735e-06 -2.77785e-06)
(-0.00015 -4.04509e-06 -2.93893e-06)
(0.00015 -4.04509e-06 -2.93893e-06)
(-0.00015 -3.92658e-06 -3.09547e-06)
(0.00015 -3.92658e-06 -3.09547e-06)
(-0.00015 -3.80203e-06 -3.24724e-06)
(0.00015 -3.80203e-06 -3.24724e-06)
(-0.00015 -3.67161e-06 -3.394e-06)
(0.00015 -3.67161e-06 -3.394e-06)
(-0.00015 -3.53553e-06 -3.53553e-06)
(0.00015 -3.53553e-06 -3.53553e-06)
(0.00015 -3.394e-06 -3.67161e-06)
(-0.00015 -3.394e-06 -3.67161e-06)
(0.00015 -3.24724e-06 -3.80203e-06)
(-0.00015 -3.24724e-06 -3.80203e-06)
(0.00015 -3.09547e-06 -3.92658e-06)
(-0.00015 -3.09547e-06 -3.92658e-06)
(0.00015 -2.93893e-06 -4.04509e-06)
(-0.00015 -2.93893e-06 -4.04509e-06)
(0.00015 -2.77785e-06 -4.15735e-06)
(-0.00015 -2.77785e-06 -4.15735e-06)
(0.00015 -2.61249e-06 -4.2632e-06)
(-0.00015 -2.61249e-06 -4.2632e-06)
(0.00015 -2.44311e-06 -4.36248e-06)
(-0.00015 -2.44311e-06 -4.36248e-06)
(0.00015 -2.26995e-06 -4.45503e-06)
(-0.00015 -2.26995e-06 -4.45503e-06)
(0.00015 -2.0933e-06 -4.54072e-06)
(-0.00015 -2.0933e-06 -4.54072e-06)
(0.00015 -1.91342e-06 -4.6194e-06)
(-0.00015 -1.91342e-06 -4.6194e-06)
(0.00015 -1.73059e-06 -4.69096e-06)
(-0.00015 -1.73059e-06 -4.69096e-06)
(0.00015 -1.54508e-06 -4.75528e-06)
(-0.00015 -1.54508e-06 -4.75528e-06)
(0.00015 -1.3572e-06 -4.81228e-06)
(-0.00015 -1.3572e-06 -4.81228e-06)
(0.00015 -1.16723e-06 -4.86185e-06)
(-0.00015 -1.16723e-06 -4.86185e-06)
(0.00015 -9.75452e-07 -4.90393e-06)
(-0.00015 -9.75452e-07 -4.90393e-06)
(0.00015 -7.82172e-07 -4.93844e-06)
(-0.00015 -7.82172e-07 -4.93844e-06)
(0.00015 -5.87687e-07 -4.96534e-06)
(-0.00015 -5.87687e-07 -4.96534e-06)
(0.00015 -3.92295e-07 -4.98459e-06)
(-0.00015 -3.92295e-07 -4.98459e-06)
(0.00015 -1.96299e-07 -4.99615e-06)
(-0.00015 -1.96299e-07 -4.99615e-06)
)


// edges:

320
(
(0 1)
(2 3)
(4 0)
(3 5)
(6 4)
(5 7)
(8 6)
(7 9)
(10 8)
(9 11)
(12 10)
(11 13)
(14 12)
(13 15)
(16 14)
(15 17)
(18 16)
(17 19)
(20 18)
(19 21)
(22 20)
(21 23)
(24 22)
(23 25)
(26 24)
(25 27)
(28 26)
(27 29)
(30 28)
(29 31)
(32 30)
(31 33)
(34 32)
(33 35)
(36 34)
(35 37)
(38 36)
(37 39)
(40 38)
(39 41)
(42 40)
(41 43)
(44 42)
(43 45)
(46 44)
(45 47)
(48 46)
(47 49)
(50 48)
(49 51)
(52 50)
(51 53)
(54 52)
(53 55)
(56 54)
(55 57)
(58 56)
(57 59)
(60 58)
(59 61)
(62 60)
(61 63)
(64 62)
(63 65)
(66 64)
(65 67)
(68 66)
(67 69)
(70 68)
(69 71)
(72 70)
(71 73)
(74 72)
(73 75)
(76 74)
(75 77)
(78 76)
(77 79)
(80 78)
(79 81)
(82 80)
(81 83)
(84 82)
(83 85)
(86 84)
(85 87)
(88 86)
(87 89)
(90 88)
(89 91)
(92 90)
(91 93)
(94 92)
(93 95)
(96 94)
(95 97)
(98 96)
(97 99)
(100 98)
(99 101)
(102 100)
(101 103)
(104 102)
(103 105)
(106 104)
(105 107)
(108 106)
(107 109)
(110 108)
(109 111)
(112 110)
(111 113)
(114 112)
(113 115)
(116 114)
(115 117)
(118 116)
(117 119)
(120 118)
(119 121)
(122 120)
(121 123)
(124 122)
(123 125)
(126 124)
(125 127)
(128 126)
(127 129)
(130 128)
(129 131)
(132 130)
(131 133)
(134 132)
(133 135)
(136 134)
(135 137)
(138 136)
(137 139)
(140 138)
(139 141)
(142 140)
(141 143)
(144 142)
(143 145)
(146 144)
(145 147)
(148 146)
(147 149)
(150 148)
(149 151)
(152 150)
(151 153)
(154 152)
(153 155)
(156 154)
(155 157)
(158 156)
(157 159)
(160 158)
(159 161)
(162 160)
(161 163)
(164 162)
(163 165)
(166 164)
(165 167)
(168 166)
(167 169)
(170 168)
(169 171)
(172 170)
(171 173)
(174 172)
(173 175)
(176 174)
(175 177)
(178 176)
(177 179)
(180 178)
(179 181)
(182 180)
(181 183)
(184 182)
(183 185)
(186 184)
(185 187)
(188 186)
(187 189)
(190 188)
(189 191)
(192 190)
(191 193)
(194 192)
(193 195)
(196 194)
(195 197)
(198 196)
(197 199)
(200 198)
(199 201)
(201 202)
(203 200)
(202 204)
(205 203)
(204 206)
(207 205)
(206 208)
(209 207)
(208 210)
(211 209)
(210 212)
(213 211)
(212 214)
(215 213)
(214 216)
(217 215)
(216 218)
(219 217)
(218 220)
(221 219)
(220 222)
(223 221)
(222 224)
(225 223)
(224 226)
(227 225)
(226 228)
(229 227)
(228 230)
(231 229)
(230 232)
(233 231)
(232 234)
(235 233)
(234 236)
(237 235)
(236 238)
(239 237)
(240 239)
(238 241)
(241 242)
(243 240)
(242 244)
(245 243)
(244 246)
(247 245)
(246 248)
(249 247)
(248 250)
(251 249)
(250 252)
(253 251)
(252 254)
(255 253)
(254 256)
(257 255)
(256 258)
(259 257)
(258 260)
(261 259)
(260 262)
(263 261)
(262 264)
(265 263)
(264 266)
(267 265)
(266 268)
(269 267)
(268 270)
(271 269)
(270 272)
(273 271)
(272 274)
(275 273)
(274 276)
(277 275)
(276 278)
(279 277)
(278 280)
(281 279)
(282 281)
(280 283)
(284 282)
(283 285)
(286 284)
(285 287)
(288 286)
(287 289)
(290 288)
(289 291)
(292 290)
(291 293)
(294 292)
(293 295)
(296 294)
(295 297)
(298 296)
(297 299)
(300 298)
(299 301)
(302 300)
(301 303)
(304 302)
(303 305)
(306 304)
(305 307)
(308 306)
(307 309)
(310 308)
(309 311)
(312 310)
(311 313)
(314 312)
(313 315)
(316 314)
(315 317)
(318 316)
(317 319)
(1 318)
(319 2)
)

// * * * * * * * * * * * * * * * * * * * * * * * * * * * * * * * * * * * * * //


// ************************************************************************* //
